%mem=128GB
%nprocshared=32
# opt freq 6-31+g(d,p) m06

I-M2

0 1
 C                  2.95819400    0.23085800   -0.00013200
 O                  2.57241900   -1.05472300    0.00069000
 C                  0.78511700    0.10505600    0.00038100
 C                  1.86083000    1.03326600   -0.00040100
 H                  1.82042700    2.11388300   -0.00092700
 N                  1.18775100   -1.14524800    0.00102500
 C                  4.41373500    0.48779200   -0.00083900
 H                  4.61046900    1.56238200   -0.00045800
 H                  4.88539900    0.04402900    0.88242800
 H                  4.88436500    0.04484600   -0.88507200
 N                 -0.55742100    0.46519200    0.00054200
 H                 -1.24932111   -0.27806842    0.03895832
 C                 -1.07904229    1.71508364   -0.04474402
 O                 -0.49329918    2.77939350   -0.09501890
 C                 -2.61795483    1.68983229   -0.02620829
 O                 -3.26808186    0.83935684   -0.58106454
 O                 -3.11692762    2.70029563    0.66213696
 H                 -4.09266210    2.61513034    0.62742563

