%mem=48GB
%nprocshared=12
# 6-31+g(d,p) pop=(full,nbo) m06

I-M2

1 2
 C                  2.81501800    0.26729600    0.00025600
 O                  2.80625700   -1.07729800   -0.00032500
 C                  0.76538300   -0.44875300   -0.00015200
 C                  1.53902400    0.74045600    0.00035100
 H                  1.19008200    1.76148100    0.00060600
 N                  1.50268200   -1.53790500   -0.00057000
 C                  4.14117900    0.92020100    0.00047000
 H                  4.02564600    2.00653900    0.00202300
 H                  4.71897900    0.62746200    0.88380600
 H                  4.71804200    0.62993800   -0.88430300
 N                 -0.61292300   -0.60079200   -0.00008200
 H                 -0.97764700   -1.54996400    0.00029800
 C                 -1.51243600    0.42050900   -0.00028600
 O                 -1.25892100    1.60553400   -0.00075600
 C                 -2.94601300   -0.12979500    0.00017200
 O                 -3.19834900   -1.31248500    0.00062000
 O                 -3.84794300    0.84078100    0.00007500
 H                 -4.72469700    0.42368000    0.00035000

