%mem=32GB
%nprocshared=21
# opt freq 6-31+g(d,p) m06

I-M1

0 1
 C                 -3.44102400   -0.24326000   -0.09886900
 C                 -4.79243100   -0.53820100   -0.00734000
 C                 -5.69744400    0.50490300    0.17082200
 C                 -5.24162000    1.81934400    0.24938200
 C                 -3.88327200    2.10458600    0.16828400
 C                 -2.95865200    1.07037200    0.00363300
 H                 -5.12242300   -1.57198300   -0.07453600
 H                 -6.76027000    0.29053300    0.24480100
 H                 -5.95225800    2.63109300    0.38102000
 H                 -3.52161500    3.12659600    0.23658600
 C                 -1.51959600    1.34809500   -0.05123900
 C                 -0.58136500    0.36733900    0.14267700
 S                 -2.26180200   -1.53585700   -0.42411600
 O                 -1.87377700   -1.47836400   -1.82070700
 O                 -2.73333400   -2.76919700    0.18321700
 N                 -0.95644300   -0.97152300    0.48468500
 C                 -1.03271500   -1.24275400    1.93133600
 H                 -0.06158200   -0.99090700    2.36824000
 H                 -1.80955900   -0.63663800    2.42041700
 H                 -1.23389500   -2.30327100    2.09246300
 O                 -1.20536800    2.60717800   -0.32252800
 H                 -0.21323200    2.66937900   -0.31047700
 C                  0.83953200    0.66683800   -0.01311800
 O                  1.25113700    1.82706700   -0.17142500
 N                  1.67264800   -0.41206800    0.03037700
 H                  1.24063100   -1.33158400    0.06253200
 C                  3.05311600   -0.37383600   -0.07888800
 N                  3.70045600   -1.51953000   -0.04181400
 C                  5.14940500    0.15084900   -0.26083300
 C                  3.92500400    0.73814000   -0.21855200
 C                  6.52366900    0.69207500   -0.39863300
 H                  7.03424800    0.15126200   -1.21043900
 O                  5.03192200   -1.18292400   -0.16183100
 H                  3.66638600    1.78409700   -0.27237400
 O                  7.19951600    0.53159000    0.83075000
 H                  6.60941944    0.11040331    1.46389407
 H                  6.44560200    1.75094200   -0.68854600

